network = src.dtnsim										
repeat = 1

# Simulation end time
sim-time-limit = 1000s
simtime-resolution = 1s
#dtnsim.node[4..5].com.packetLoss = 0.1


######## Central Module ########
dtnsim.central.contactsFile = "contactPlan/Contacts.txt"
dtnsim.central.contactsFile_A = "contactPlan/Contacts_A.txt"
dtnsim.central.contactsFile_B = "contactPlan/Contacts_B.txt"

#dtnsim.central.contactIdsToDelete="1 3 4 6 7"
#dtnsim.central.contactIdsToDelete="2 4 6 10 15 17 22 26 28 43 45 47 50 52 54 56 60 61 63 67 72 76 77 85 86 87 89 95 96 97 99 100 102 104 106 121 123 125 126 127 130 134 139 143 150 154 158 160 162 167 168 169 172 177 179 181 184 189 192 195 202 203 204 205 208 209 212 213 216 217 227 230 231 236 239 240 243 244 245 246 252 254 255 260 263 264 267 269 275 276 289 293 296 299 307 310 312 313 317 322 326 329 330 333 339 340 342 343 346 348 350 351 354 356 359 362 369 371 372 373 374 379 380 382 395 397 398 402 411 412 413 416 420 426 427 434 437 440 445 447 456 459 461 462 468 472 479 487 488 494 497 503 505 510 520 521 522 525 526 534 537 538 542 543 553 557 559 568 570 571 575 576 584 585 587 589 595 597 598 601 602 612 614 617 627 629 630 632 633 637 638 639 646 651 652 654 659 662 665 666 671 674 678 683 686 688 689 690 703 705 707 715 719 723 726 727 728 729 730 731 736 744 745 747 749 753 754 755 760 762 768 769 771 774 781 783 788 801 805 809 811 814 816 817 818 819 820 821 824 826 828 830 837 842 844 847 851 854 855 858 860 865 876 877 881 882 884 886 893 895 896 901 909 914 919 922 925 928 932 934 939 940 945 946 950 951 955 956 959 962 968 978 979 985 987 988 990 991 995 998"
dtnsim.central.contactIdsToDelete_from_celestialA="2 4 6 10 28 43 45 47 52 54 56 60 63 67 72 76 86 87 96 97 99 100 102 104 106 121 123 125 126 127 130 139 143 150 154 160 162 168 169 179 181 184 189 192 195 202 203 204 205 208 209 216 217 227 230 236 239 240 243 244 245 246 252 254 255 260 263 267 269 276 289 293 296 299 312 313 317 322 330 333 339 340 342 343 346 350 351 359 362 371 372 373 374 379 382 395 397 402 411 412 413 420 426 427 434 445 447 459 461 462 468 472 479 487 488 497 503 510 520 525 526 537 538 542 543 553 559 568 570 571 575 584 585 587 589 595 597 601 602 612 614 629 633 637 639 646 651 652 654 662 665 666 671 678 686 688 689 690 703 707 715 719 723 726 727 728 729 731 736 747 749 753 754 755 760 762 768 769 771 781 788 801 805 809 811 814 816 817 818 819 820 821 824 842 844 847 851 854 855 858 860 865 876 877 881 882 893 895 896 901 919 922 925 934 939 940 945 946 955 956 962 978 979 985 987 988 991 995"
dtnsim.central.contactIdsToDelete_from_celestialB="15 17 22 26 50 61 77 85 89 95 134 158 167 172 177 212 213 231 264 275 307 310 326 329 348 354 356 369 380 398 416 437 440 456 494 505 521 522 534 557 576 598 617 627 630 632 638 659 674 683 705 730 744 745 774 783 826 828 830 837 884 886 909 914 928 932 950 951 959 968 990 998"


#dtnsim.central.faultsAwareNodes="1 2 4 5 6"
dtnsim.central.celestialA_nodes="1 2 3"
dtnsim.central.celestialB_nodes="4 5 6"
#dtnsim.central.partlyfaultsAware = true
dtnsim.central.locallyfaultsAware = true
dtnsim.central.mode_two_celestial = true
#dtnsim.central.deleteNContacts= 1
#dtnsim.central.faultsAware = true

# Nodes quantity (identifiers (EiDs) matches their index, EiD=0 is ignored)			
dtnsim.nodesNumber = 6

# Node's icons (satellite, receiverdish, server2, antennatower)
dtnsim.node[1].icon = "receiverdish"
dtnsim.node[2..5].icon = "satellite"
dtnsim.node[6].icon = "receiverdish"

#dtnsim.node[*].dtn.saveBundleMap = true
#dtnsim.central.saveTopology = true
#dtnsim.central.saveFlows = true
#dtnsim.central.saveLpFlows = false
#dtnsim.node[*].**.result-recording-modes = -vector 
#dtnsim.node[*].dtn.printRoutingDebug = true

# Net Layer (available routing: direct, cgrModel350, cgrModelRev17, cgrModel350_Hops, cgrModel350_2Copies)
dtnsim.node[*].dtn.routing = "cgrModel350"
dtnsim.node[*].dtn.routingType = "routeListType:allPaths-firstEnding,volumeAware:allContacts,extensionBlock:on,contactPlan:global"

# App Layer (comma separeted strings for different traffic generators)			
dtnsim.node[1].app.enable=true
dtnsim.node[*].app.custodyTransfer=true
dtnsim.node[1].app.bundlesNumber="1000"
dtnsim.node[1].app.start="0"			 
dtnsim.node[1].app.destinationEid="6"
dtnsim.node[1].app.size="1500"
dtnsim.node[1].app.interval=1
