network = src.dtnsim										
repeat = 1

# Simulation end time
sim-time-limit = 10000s
simtime-resolution = 1s
#dtnsim.node[4..5].com.packetLoss = 0.1


######## Central Module ########
dtnsim.central.contactsFile = "contactPlan/Contacts.txt"
dtnsim.central.contactsFile_A = "contactPlan/Contacts_A.txt"
dtnsim.central.contactsFile_B = "contactPlan/Contacts_B.txt"

#dtnsim.central.contactIdsToDelete="1 3 4 6 7"
#dtnsim.central.contactIdsToDelete="5 8 9 11 22 26 28 32 33 34 38 39 41 46 48 57 59 62 65 67 68 70 77 79 84 88 90 92 94 95"
dtnsim.central.contactIdsToDelete_from_celestialA="22 28 32 33 38 62 65 68 70 77 79 84 88 92 94"
dtnsim.central.contactIdsToDelete_from_celestialB="5 8 9 11 26 34 39 41 46 48 57 59 67 90 95"
#dtnsim.central.faultsAwareNodes="1 2 4 5 6"
dtnsim.central.celestialA_nodes="1 2 3"
dtnsim.central.celestialB_nodes="4 5 6"
#dtnsim.central.partlyfaultsAware = true
dtnsim.central.locallyfaultsAware = true
dtnsim.central.mode_two_celestial = true
#dtnsim.central.deleteNContacts= 1
#dtnsim.central.faultsAware = true

# Nodes quantity (identifiers (EiDs) matches their index, EiD=0 is ignored)			
dtnsim.nodesNumber = 6

# Node's icons (satellite, receiverdish, server2, antennatower)
dtnsim.node[1].icon = "receiverdish"
dtnsim.node[2..5].icon = "satellite"
dtnsim.node[6].icon = "receiverdish"

#dtnsim.node[*].dtn.saveBundleMap = true
#dtnsim.central.saveTopology = true
#dtnsim.central.saveFlows = true
#dtnsim.central.saveLpFlows = false
#dtnsim.node[*].**.result-recording-modes = -vector 
#dtnsim.node[*].dtn.printRoutingDebug = true

# Net Layer (available routing: direct, cgrModel350, cgrModelRev17, cgrModel350_Hops, cgrModel350_2Copies)
dtnsim.node[*].dtn.routing = "cgrModel350"
dtnsim.node[*].dtn.routingType = "routeListType:allPaths-firstEnding,volumeAware:allContacts,extensionBlock:on,contactPlan:global"

# App Layer (comma separeted strings for different traffic generators)			
dtnsim.node[1].app.enable=true
dtnsim.node[*].app.custodyTransfer=true
dtnsim.node[1].app.bundlesNumber="10000"
dtnsim.node[1].app.start="0"			 
dtnsim.node[1].app.destinationEid="6"
dtnsim.node[1].app.size="1500"
dtnsim.node[1].app.interval=1

