network = src.dtnsim										
repeat = 1

# Simulation end time
sim-time-limit = 1800s
simtime-resolution = 1s
#dtnsim.node[1].com.packetLoss = 0.1


######## Central Module ########
dtnsim.central.contactsFile = "contactPlan/Contacts.txt"
dtnsim.central.contactsFile_A = "contactPlan/Contacts.txt"
dtnsim.central.contactsFile_B = "contactPlan/Contacts.txt"

#dtnsim.central.contactIdsToDelete="1 3 4 6 7"
#dtnsim.central.contactIdsToDelete="6 7 9 11 14 15 17 18 22 23 27 29 30 32 35 36 37 43 44 45 47 48 49 51 52 57 59 60 65 66 74 81 87 93 94 98 99 100 101 105 108 109 111 119 121 126 135 139 142 150 152 155 158 159 165 166 168 172 174 176 177 178 179 180 184 191 195 196 198 202 203 205 206 208 211 213 215 219 220 222 228 232 234 235 239 240 242 251 252 256 259 261 262 263 264 270 271 274 277 282 284 287 289 290 292 296 297 307 308 311 314 315 316 319 320 322 323 329 332 333 337 338 341 348 350 355 356 360 366 368 369 372 373 378 382 385 387 389 392 394 396 404 406 409 416 417 420 422 425 426 432 433 434 435 436 437 438 441 445 449 452 455 457 459 465 469 470 472 475 476 483 485 486 490 497 499 502 505 509 511 512 521 523 525 536 538 542 543 550 553 557 570 571 572 574 581 582 583 593 595"
dtnsim.central.contactIdsToDelete_from_celestialA="6 9 11 29 32 35 37 48 49 51 59 60 65 66 81 87 93 94 98 100 101 105 109 121 126 139 142 150 152 158 159 172 176 179 180 195 198 202 203 211 213 220 222 228 239 240 251 252 262 263 264 271 284 287 290 292 296 307 314 320 322 341 350 356 360 366 369 372 373 378 385 387 392 394 396 406 409 416 422 425 432 434 435 437 441 445 455 465 469 470 475 476 485 486 490 502 512 521 538 543 570 571 572 583 593 595"
dtnsim.central.contactIdsToDelete_from_celestialB="7 14 15 17 18 22 23 27 30 36 43 44 45 47 52 57 74 99 108 111 119 135 155 165 166 168 174 177 178 184 191 196 205 206 208 215 219 232 234 235 242 256 259 261 270 274 277 282 289 297 308 311 315 316 319 323 329 332 333 337 338 348 355 368 382 389 404 417 420 426 433 436 438 449 452 457 459 472 483 497 499 505 509 511 523 525 536 542 550 553 557 574 581 582"

#dtnsim.central.faultsAwareNodes="1 2 4 5 6"
dtnsim.central.celestialA_nodes="1 2 3"
dtnsim.central.celestialB_nodes="4 5 6"
#dtnsim.central.partlyfaultsAware = true
dtnsim.central.locallyfaultsAware = false
dtnsim.central.mode_two_celestial = true
#dtnsim.central.deleteNContacts= 1
#dtnsim.central.faultsAware = true

# Nodes quantity (identifiers (EiDs) matches their index, EiD=0 is ignored)			
dtnsim.nodesNumber = 6

# Node's icons (satellite, receiverdish, server2, antennatower)
dtnsim.node[1].icon = "receiverdish"
dtnsim.node[2..5].icon = "satellite"
dtnsim.node[6].icon = "receiverdish"

#dtnsim.node.dtn[2..5]custodyTimeout = 5000

#dtnsim.node[*].dtn.saveBundleMap = true
#dtnsim.central.saveTopology = true
#dtnsim.central.saveFlows = true
#dtnsim.central.saveLpFlows = false
#dtnsim.node[*].**.result-recording-modes = -vector 
#dtnsim.node[*].dtn.printRoutingDebug = true

# Net Layer (available routing: direct, cgrModel350, cgrModelRev17, cgrModel350_Hops, cgrModel350_2Copies)
dtnsim.node[*].dtn.routing = "cgrModel350"
dtnsim.node[*].dtn.routingType = "routeListType:allPaths-firstEnding,volumeAware:allContacts,extensionBlock:on,contactPlan:global"

# App Layer (comma separeted strings for different traffic generators)			
dtnsim.node[1].app.enable=true
#dtnsim.node[1].app.custodyTransfer=true
dtnsim.node[1].app.bundlesNumber="1500"
dtnsim.node[1].app.start="0"			 
dtnsim.node[1].app.destinationEid="6"
dtnsim.node[1].app.size="1500"
dtnsim.node[1].app.interval=1
