network = src.dtnsim										
repeat = 1

# Simulation end time
sim-time-limit = 1000s
simtime-resolution = 1s
#dtnsim.node[4..5].com.packetLoss = 0.1


######## Central Module ########
dtnsim.central.contactsFile = "contactPlan/Contacts.txt"
dtnsim.central.contactsFile_A = "contactPlan/Contacts_A.txt"
dtnsim.central.contactsFile_B = "contactPlan/Contacts_B.txt"

#dtnsim.central.contactIdsToDelete="1 3 4 6 7"
#dtnsim.central.contactIdsToDelete="2 4 8 14 17 19 21 24 33 37 44 52 59 61 69 70 75 81 84 85 86 88 95 100 104 108 116 118 119 120 121 123 124 128 131 132 133 134 136 154 156 157 158 159 166 169 172 176 177 180 181 188 189 192 197 198 204 214 216 218 219 222 223 224 225 228 231 240 245 247 249 252 255 257 258 261 263 268 271 272 286 288 293 296 301 306 311 312 325 329 330 333 337 340 347 348 350 351 356 362 367 376 381 384 389 391 392 394 396 403 407 408 410 412 413 419 420 423 424 434 440 441 443 445 446 447 449 451 452 455 462 464 465 466 468 471 473 475 481 482 485 486 488 490 493 494 495 505 514 519 524 528 531 537 538 539 542 543 544 549 552 553 555 557 559 562 563 564 571 579 580 581 583 587 593 597 599 600 602 603 608 610 612 618 621 622 623 631 632 633 641 644 651 655 656 661 663 672 679 680 681 682 683 685 688 689 691 700 704 708 712 713 720 722 725 726 729 733 738 739 742 744 746 747 748 751 754 755 758 760 761 764 765 766 767 768 769 770 774 775 788 789 792 795 796 800 802 808 813 814 815 816 823 834 838 843 844 845 852 854 855 856 858 868 869 880 881 883 884 885 892 893 895 904 906 907 909 910 916 917 919 920 922 926 928 931 935 936 941 942 946 950 957 964 978 980 981 983 992 994"
dtnsim.central.contactIdsToDelete_from_celestialA="2 4 8 14 17 19 21 24 33 37 44 52 59 61 69 70 75 81 84 85 86 88 95 100 104 108 116 118 119 120 121 123 124 128 131 132 133 134 136 154 156 157 158 159 166 169 172 176 177 180 181 188 189 192 197 198 204 214 216 218 219 222 223 224 231 240 245 247 249 252 255 257 258 261 263 268 271 272 286 288 293 296 301 306 311 312 325 329 330 333 337 340 347 348 350 351 356 367 376 384 389 391 392 394 396 403 407 408 410 412 413 419 420 423 424 434 440 441 443 445 446 447 449 451 452 455 462 464 465 466 468 471 473 475 481 482 485 486 488 490 493 494 495 505 514 524 528 531 538 539 542 543 544 549 552 553 555 557 559 562 563 564 571 579 580 581 583 587 593 597 599 600 602 603 608 610 612 618 621 622 623 631 633 641 644 651 655 656 661 663 672 679 680 681 682 683 685 688 689 691 700 704 708 712 713 720 722 725 726 729 733 738 739 742 744 746 747 748 751 754 755 758 761 764 765 766 767 768 769 770 774 775 788 789 792 795 796 800 802 808 813 814 815 816 823 834 838 843 844 845 852 854 855 856 858 868 869 880 881 883 884 885 892 895 904 906 907 909 910 916 917 919 920 926 928 931 935 936 941 942 946 950 964 978 980 981 983 992 994"
dtnsim.central.contactIdsToDelete_from_celestialB="225 228 362 381 519 537 632 760 893 922 957"

#dtnsim.central.faultsAwareNodes="1 2 4 5 6"
dtnsim.central.celestialA_nodes="1 2 3"
dtnsim.central.celestialB_nodes="4 5 6"
#dtnsim.central.partlyfaultsAware = true
dtnsim.central.locallyfaultsAware = true
dtnsim.central.mode_two_celestial = true
#dtnsim.central.deleteNContacts= 1
#dtnsim.central.faultsAware = true

# Nodes quantity (identifiers (EiDs) matches their index, EiD=0 is ignored)			
dtnsim.nodesNumber = 6

# Node's icons (satellite, receiverdish, server2, antennatower)
dtnsim.node[1].icon = "receiverdish"
dtnsim.node[2..5].icon = "satellite"
dtnsim.node[6].icon = "receiverdish"

#dtnsim.node[*].dtn.saveBundleMap = true
#dtnsim.central.saveTopology = true
#dtnsim.central.saveFlows = true
#dtnsim.central.saveLpFlows = false
#dtnsim.node[*].**.result-recording-modes = -vector 
#dtnsim.node[*].dtn.printRoutingDebug = true

# Net Layer (available routing: direct, cgrModel350, cgrModelRev17, cgrModel350_Hops, cgrModel350_2Copies)
dtnsim.node[*].dtn.routing = "cgrModel350"
dtnsim.node[*].dtn.routingType = "routeListType:allPaths-firstEnding,volumeAware:allContacts,extensionBlock:on,contactPlan:global"

# App Layer (comma separeted strings for different traffic generators)			
dtnsim.node[1].app.enable=true
dtnsim.node[*].app.custodyTransfer=true
dtnsim.node[1].app.bundlesNumber="1000"
dtnsim.node[1].app.start="0"			 
dtnsim.node[1].app.destinationEid="6"
dtnsim.node[1].app.size="1500"
dtnsim.node[1].app.interval=1
