network = src.dtnsim										
repeat = 1

# Simulation end time
sim-time-limit = 10000s
simtime-resolution = 1s
#dtnsim.node[4..5].com.packetLoss = 0.1


######## Central Module ########
dtnsim.central.contactsFile = "contactPlan/Contacts.txt"
dtnsim.central.contactsFile_A = "contactPlan/Contacts_A.txt"
dtnsim.central.contactsFile_B = "contactPlan/Contacts_B.txt"

#dtnsim.central.contactIdsToDelete="1 3 4 6 7"
#dtnsim.central.contactIdsToDelete="1 3 5 8 10 11 17 25 27 30 32 36 42 51 56 64 68 70 75 77 79 83 86 94 97 99 102 104 108 109 112 115 116 117 118 121 128 131 132 134 142 144 152 153 156 160 162 163 166 169 171 173 174 176 181 183 185 186 188 189 201 203 215 224 225 226 230 233 235 238 240 251 252 255 258 261 262 263 278 290 293 297 301 302 309 310 321 322 330 331 344 345 351 353 354 358 359 363 364 366 368 370 371 375 377 379 380 381 382 387 388 396 403 405 407 408 413 422 424 427 429 430 434 443 444 445 447 455 459 462 463 465 468 472 474 475 476 477 478 479 483 484 485 493 495 496 502 504 507 516 517 519 520 524 529 530 532 537 541 544 547 548 552 554 556 558 559 563 570 571 575 582 588 594 595 596 597 599 600 602 603 610 611 613 614 615 617 619 621 622 624 642 644 647 648 649 650 663 665 667 674 675 680 686 689 697 701 705 707 708 709 711 719 721 722 723 727 733 735 739 743 745 747 753 755 756 760 764 767 770 771 772 773 777 787 790 791 796 797 798 803 806 808 814 817 818 821 826 829 830 831 832 834 835 836 838 839 841 843 847 851 854 858 859 861 871 875 876 877 878 882 883 884 889 892 893 902 907 909 914 915 918 924 930 931 938 939 948 954 961 963 965 967 969 976 977 979 984 991 994"
dtnsim.central.contactIdsToDelete_from_celestialA="1 3 5 17 36 42 56 77 86 94 97 104 108 112 115 116 117 118 128 131 134 142 156 160 162 166 173 174 183 185 188 201 203 215 226 230 233 238 252 255 258 261 262 278 297 301 309 310 321 322 330 345 353 354 358 370 377 380 381 382 388 396 408 422 427 445 462 465 472 475 476 477 478 483 484 485 504 519 520 524 529 532 537 547 548 556 558 559 563 571 582 595 596 600 602 603 613 615 617 621 642 650 663 665 675 680 689 697 701 705 707 708 719 721 723 727 739 760 770 771 772 773 777 791 796 803 806 817 818 821 826 830 832 834 838 843 854 859 875 877 882 883 884 889 907 915 924 930 938 939 948 961 965 967 977 984 991 994"
dtnsim.central.contactIdsToDelete_from_celestialB="8 10 11 25 27 30 32 51 64 68 70 75 79 83 99 102 109 121 132 144 152 153 163 169 171 176 181 186 189 224 225 235 240 251 263 290 293 302 331 344 351 359 363 364 366 368 371 375 379 387 403 405 407 413 424 429 430 434 443 444 447 455 459 463 468 474 479 493 495 496 502 507 516 517 530 541 544 552 554 570 575 588 594 597 599 610 611 614 619 622 624 644 647 648 649 667 674 686 709 711 722 733 735 743 745 747 753 755 756 764 767 787 790 797 798 808 814 829 831 835 836 839 841 847 851 858 861 871 876 878 892 893 902 909 914 918 931 954 963 969 976 979"
#dtnsim.central.faultsAwareNodes="1 2 4 5 6"
dtnsim.central.celestialA_nodes="1 2 3"
dtnsim.central.celestialB_nodes="4 5 6"
#dtnsim.central.partlyfaultsAware = true
dtnsim.central.locallyfaultsAware = true
dtnsim.central.mode_two_celestial = true
#dtnsim.central.deleteNContacts= 1
#dtnsim.central.faultsAware = true

# Nodes quantity (identifiers (EiDs) matches their index, EiD=0 is ignored)			
dtnsim.nodesNumber = 6

# Node's icons (satellite, receiverdish, server2, antennatower)
dtnsim.node[1].icon = "receiverdish"
dtnsim.node[2..5].icon = "satellite"
dtnsim.node[6].icon = "receiverdish"

#dtnsim.node[*].dtn.saveBundleMap = true
#dtnsim.central.saveTopology = true
#dtnsim.central.saveFlows = true
#dtnsim.central.saveLpFlows = false
#dtnsim.node[*].**.result-recording-modes = -vector 
#dtnsim.node[*].dtn.printRoutingDebug = true

# Net Layer (available routing: direct, cgrModel350, cgrModelRev17, cgrModel350_Hops, cgrModel350_2Copies)
dtnsim.node[*].dtn.routing = "cgrModel350"
dtnsim.node[*].dtn.routingType = "routeListType:allPaths-firstEnding,volumeAware:allContacts,extensionBlock:on,contactPlan:global"

# App Layer (comma separeted strings for different traffic generators)			
dtnsim.node[1].app.enable=true
dtnsim.node[*].app.custodyTransfer=true
dtnsim.node[1].app.bundlesNumber="10000"
dtnsim.node[1].app.start="0"			 
dtnsim.node[1].app.destinationEid="6"
dtnsim.node[1].app.size="1500"
dtnsim.node[1].app.interval=1

