network = src.dtnsim										
repeat = 1

# Simulation end time
sim-time-limit = 1800s
simtime-resolution = 100ms
#dtnsim.node[4..5].com.packetLoss = 0.1


######## Central Module ########
dtnsim.central.contactsFile = "contactPlan/Contacts.txt"
dtnsim.central.contactsFile_A = "contactPlan/Contacts.txt"
dtnsim.central.contactsFile_B = "contactPlan/Contacts.txt"

#dtnsim.central.contactIdsToDelete="1 3 4 6 7"
#dtnsim.central.contactIdsToDelete="1 3 4 7 8 9 18 22 23 24 28 29 30 33 34 36 37 40 41 44 45 46 48 53 57 58 66 67 68 71 72 73 81 82 88 91 98 100 101 103 107 117 125 126 127 128 130 132 137 138 140 141 148 149 152 153 162 163 166 170 173 177 181 187 188 189 193 196 197 198 199 201 205 215 216 218 221 228 230 232 233 235 236 237 238 240 244 247 248 254 256 268 271 276 280 283 285 286 291 296 297 299 303 308 310 312 315 318 319 327 328 330 331 334 335 337 342 346 348 353 355 356 361 365 368 372 375 376 377 379 381 382 383 384 385 387 390 393 396 401 403 404 406 409 415 416 426 429 432 437 438 442 443 448 452 459 465 468 483 488 489 492 494 501 502 503 505 516 518 519 524 526 530 531 534 535 538 539 548 549 550 552 554 557 558 562 566 570 571 574 578 580 582 584 585 589 591 592 594 596"
dtnsim.central.contactIdsToDelete_from_celestialA="3 4 8 9 18 22 24 30 40 41 46 48 53 57 58 68 71 88 91 101 117 128 137 140 141 152 153 173 177 188 189 196 197 198 199 228 230 232 235 240 247 248 271 276 283 285 297 308 310 318 327 334 335 337 342 348 353 355 365 376 379 382 387 393 396 401 409 415 416 426 432 442 448 459 465 488 492 494 503 518 519 526 530 534 535 538 539 548 552 558 562 566 570 571 580 584 585 591 592 594"
dtnsim.central.contactIdsToDelete_from_celestialB="1 7 23 28 29 33 34 36 37 44 45 66 67 72 73 81 82 98 100 103 107 125 126 127 130 132 138 148 149 162 163 166 170 181 187 193 201 205 215 216 218 221 233 236 237 238 244 254 256 268 280 286 291 296 299 303 312 315 319 328 330 331 346 356 361 368 372 375 377 381 383 384 385 390 403 404 406 429 437 438 443 452 468 483 489 501 502 505 516 524 531 549 550 554 557 574 578 582 589 596"

#dtnsim.central.faultsAwareNodes="1 2 4 5 6"
dtnsim.central.celestialA_nodes="1 2 3"
dtnsim.central.celestialB_nodes="4 5 6"
#dtnsim.central.partlyfaultsAware = true
dtnsim.central.locallyfaultsAware = true
dtnsim.central.mode_two_celestial = true
#dtnsim.central.deleteNContacts= 1
#dtnsim.central.faultsAware = true

# Nodes quantity (identifiers (EiDs) matches their index, EiD=0 is ignored)			
dtnsim.nodesNumber = 6

# Node's icons (satellite, receiverdish, server2, antennatower)
dtnsim.node[1].icon = "receiverdish"
dtnsim.node[2..5].icon = "satellite"
dtnsim.node[6].icon = "receiverdish"

dtnsim.node.dtn[2..3]custodyTimeout = 3000

#dtnsim.node[*].dtn.saveBundleMap = true
#dtnsim.central.saveTopology = true
#dtnsim.central.saveFlows = true
#dtnsim.central.saveLpFlows = false
#dtnsim.node[*].**.result-recording-modes = -vector 
#dtnsim.node[*].dtn.printRoutingDebug = true

# Net Layer (available routing: direct, cgrModel350, cgrModelRev17, cgrModel350_Hops, cgrModel350_2Copies)
dtnsim.node[*].dtn.routing = "cgrModel350"
dtnsim.node[*].dtn.routingType = "routeListType:allPaths-firstEnding,volumeAware:allContacts,extensionBlock:on,contactPlan:global"

# App Layer (comma separeted strings for different traffic generators)			
dtnsim.node[1].app.enable=true
dtnsim.node[*].app.custodyTransfer=true
dtnsim.node[1].app.bundlesNumber="1800"
dtnsim.node[1].app.start="0"			 
dtnsim.node[1].app.destinationEid="6"
dtnsim.node[1].app.size="1500"
dtnsim.node[1].app.interval=1
