network = src.dtnsim										
repeat = 1

# Simulation end time
sim-time-limit = 1800s
simtime-resolution = 1s
#dtnsim.node[1].com.packetLoss = 0.1


######## Central Module ########
dtnsim.central.contactsFile = "contactPlan/Contacts.txt"
dtnsim.central.contactsFile_A = "contactPlan/Contacts.txt"
dtnsim.central.contactsFile_B = "contactPlan/Contacts.txt"

#dtnsim.central.contactIdsToDelete="1 3 4 6 7"
#dtnsim.central.contactIdsToDelete="6 7 8 11 28 31 34 36 38 52 53 59 60 61 66 71 74 77 83 85 87 90 91 92 95 98 103 106 108 109 112 121 122 123 125 127 130 132 134 135 136 138 139 141 142 161 162 165 169 170 171 181 183 184 191 194 198 199 202 206 208 210 211 216 220 224 225 226 227 231 232 234 239 245 246 247 250 259 261 264 268 270 272 275 276 277 278 280 281 282 288 289 290 295 297 300 304 306 308 311 319 325 326 327 330 332 333 334 336 340 341 343 345 346 347 354 358 360 361 365 366 370 375 377 387 389 390 391 393 394 398 403 408 409 412 413 416 420 425 426 427 430 433 436 439 442 446 447 459 460 461 472 477 478 479 481 487 492 495 499 501 504 505 507 519 522 525 528 529 538 539 540 541 544 545 546 548 550 551 554 558 559 562 563 565 567 570 571 573 574 582 583 587 589 590 592 594 596 597 598"
dtnsim.central.contactIdsToDelete_from_celestialA="6 7 8 28 31 53 59 66 83 85 91 92 98 109 121 123 127 130 135 136 142 171 191 198 199 224 226 231 232 239 259 275 276 280 289 290 304 311 325 326 327 330 333 334 340 345 346 354 358 360 365 375 387 389 390 393 409 416 425 427 430 433 442 446 460 478 479 487 492 505 507 519 541 544 545 548 550 554 562 565 567 573 587 590 594 596 597 598"
dtnsim.central.contactIdsToDelete_from_celestialB="11 34 36 38 52 60 61 71 74 77 87 90 95 103 106 108 112 122 125 132 134 138 139 141 161 162 165 169 170 181 183 184 194 202 206 208 210 211 216 220 225 227 234 245 246 247 250 261 264 268 270 272 277 278 281 282 288 295 297 300 306 308 319 332 336 341 343 347 361 366 370 377 391 394 398 403 408 412 413 420 426 436 439 447 459 461 472 477 481 495 499 501 504 522 525 528 529 538 539 540 546 551 558 559 563 570 571 574 582 583 589 592"

#dtnsim.central.faultsAwareNodes="1 2 4 5 6"
dtnsim.central.celestialA_nodes="1 2 3"
dtnsim.central.celestialB_nodes="4 5 6"
#dtnsim.central.partlyfaultsAware = true
dtnsim.central.locallyfaultsAware = false
dtnsim.central.mode_two_celestial = true
#dtnsim.central.deleteNContacts= 1
#dtnsim.central.faultsAware = true

# Nodes quantity (identifiers (EiDs) matches their index, EiD=0 is ignored)			
dtnsim.nodesNumber = 6

# Node's icons (satellite, receiverdish, server2, antennatower)
dtnsim.node[1].icon = "receiverdish"
dtnsim.node[2..5].icon = "satellite"
dtnsim.node[6].icon = "receiverdish"

#dtnsim.node.dtn[2..5]custodyTimeout = 5000

#dtnsim.node[*].dtn.saveBundleMap = true
#dtnsim.central.saveTopology = true
#dtnsim.central.saveFlows = true
#dtnsim.central.saveLpFlows = false
#dtnsim.node[*].**.result-recording-modes = -vector 
#dtnsim.node[*].dtn.printRoutingDebug = true

# Net Layer (available routing: direct, cgrModel350, cgrModelRev17, cgrModel350_Hops, cgrModel350_2Copies)
dtnsim.node[*].dtn.routing = "cgrModel350"
dtnsim.node[*].dtn.routingType = "routeListType:allPaths-firstEnding,volumeAware:allContacts,extensionBlock:on,contactPlan:global"

# App Layer (comma separeted strings for different traffic generators)			
dtnsim.node[1].app.enable=true
#dtnsim.node[1].app.custodyTransfer=true
dtnsim.node[1].app.bundlesNumber="1500"
dtnsim.node[1].app.start="0"			 
dtnsim.node[1].app.destinationEid="6"
dtnsim.node[1].app.size="1500"
dtnsim.node[1].app.interval=1
