iniファイルのconfig

[General]
network = src.dtnsim										
repeat = 1

# Simulation end time
sim-time-limit = 1000s
simtime-scale = -1
#dtnsim.node[4..5].com.packetLoss = 0.1

# Nodes quantity (identifiers (EiDs) matches their index, EiD=0 is ignored)			
dtnsim.nodesNumber = 6	

# Node's icons (satellite, receiverdish, server2, antennatower)
dtnsim.node[1].icon = "receiverdish"
dtnsim.node[2..5].icon = "satellite"
dtnsim.node[6].icon = "receiverdish"

# Nodes's failure rates
# dtnsim.node[*].fault.enable = false
# dtnsim.node[*].fault.faultSeed = ${repetition}*10
# dtnsim.node[*].fault.meanTTF = 20s
# dtnsim.node[*].fault.meanTTR = 5s

# Net Layer (available routing: direct, cgrModel350, cgrModelRev17, cgrModel350_Hops, cgrModel350_2Copies)
dtnsim.node[*].dtn.routing = "cgrModelRev17"
dtnsim.central.contactsFile = "contactPlan/shaw_contact.txt"
dtnsim.node[*].dtn.routingType = "routeListType:allPaths-firstEnding,volumeAware:allContacts,extensionBlock:on,contactPlan:global"
dtnsim.node[*].dtn.printRoutingDebug = true

# App Layer (comma separeted strings for different traffic generators)			
dtnsim.node[1].app.enable=true
dtnsim.node[*].app.custodyTransfer=true
dtnsim.node[1].app.bundlesNumber="1000"
dtnsim.node[1].app.start="0"			 
dtnsim.node[1].app.destinationEid="6"
dtnsim.node[1].app.size="1500"
dtnsim.node[1].app.interval=1
#dtnsim.node[1].app.bundlesNumber="1,2,3,3,3,2,1,3,2,2,2,2,2,3,2,3,2,2,3,3,1,3,1,3,1,3,3,3,1,3,1,2,1,2,2,1,2,1,2,3,2,3,3,2,1,1,1,2,2,1,3,1,2,2,1,3,1,2,1,1,2,3,1,2,2,3,1,1,3,3,1,3,2,3,2,2,1,2,1,3,1,1,2,3,2,3,3,3,2,1,2,1,2,1,3,2,3,3,2,2"
#dtnsim.node[1].app.start="0,12,31,32,41,47,65,75,100,131,132,146,176,190,191,194,197,216,228,229,230,232,234,241,248,269,296,306,307,317,350,353,395,411,429,434,446,450,478,501,502,513,522,557,558,566,576,581,593,606,611,636,652,655,658,671,674,723,729,729,738,748,766,766,767,774,780,801,802,811,815,817,829,833,848,850,860,873,883,893,895,896,915,919,920,921,924,932,937,939,945,960,966,968,978,987,992,992,999,1000"
#dtnsim.node[1].app.destinationEid="6,6,6,6,6,6,6,6,6,6,6,6,6,6,6,6,6,6,6,6,6,6,6,6,6,6,6,6,6,6,6,6,6,6,6,6,6,6,6,6,6,6,6,6,6,6,6,6,6,6,6,6,6,6,6,6,6,6,6,6,6,6,6,6,6,6,6,6,6,6,6,6,6,6,6,6,6,6,6,6,6,6,6,6,6,6,6,6,6,6,6,6,6,6,6,6,6,6,6,6"
#dtnsim.node[1].app.size="25,9,26,11,8,3,11,29,17,5,14,7,23,22,6,18,22,22,8,19,17,30,20,28,24,29,28,29,9,29,7,11,12,18,26,14,8,23,11,24,28,12,9,25,6,6,25,16,5,28,30,11,4,2,14,30,7,1,25,21,18,3,26,26,22,17,22,22,10,22,3,5,29,18,8,26,17,14,23,10,2,27,14,11,23,8,14,24,10,29,19,27,19,5,27,2,4,10,27,9"
